@<TRIPOS>MOLECULE
LIG.pdb
36 38 1 0 0
SMALL
NO_CHARGES


@<TRIPOS>ATOM
      1 C4        -24.0900   14.3940   17.3250 C.ar      1 HER    0.0000
      2 C5        -23.8460   13.3490   16.4510 C.ar      1 HER    0.0000
      3 C6        -24.8580   12.9330   15.5700 C.ar      1 HER    0.0000
      4 C7        -24.7100   11.7830   14.6690 C.2       1 HER    0.0000
      5 C8        -25.2700   10.9700   12.4930 C.ar      1 HER    0.0000
      6 C10       -24.2650    9.4360   14.1320 C.2       1 HER    0.0000
      7 C13       -25.8320   10.3240   10.2890 C.ar      1 HER    0.0000
      8 C15       -24.8600    8.7110   11.7850 C.ar      1 HER    0.0000
      9 C1        -26.1170   13.5390   15.6420 C.ar      1 HER    0.0000
     10 C11       -24.2730   10.5460   15.0490 C.2       1 HER    0.0000
     11 C12       -25.7860   11.3140   11.2580 C.ar      1 HER    0.0000
     12 C14       -25.3640    9.0220   10.5440 C.ar      1 HER    0.0000
     13 C16       -26.7950   11.8630    8.7480 C.3       1 HER    0.0000
     14 C2        -26.3560   14.5740   16.5180 C.ar      1 HER    0.0000
     15 C3        -25.3410   15.0120   17.3620 C.ar      1 HER    0.0000
     16 C9        -24.7940    9.6960   12.8010 C.ar      1 HER    0.0000
     17 O1        -25.2530   11.9690   13.4240 O.3       1 HER    0.0000
     18 O2        -23.8260    8.3110   14.4860 O.2       1 HER    0.0000
     19 O3        -23.7910   10.3300   16.2990 O.3       1 HER    0.0000
     20 O4        -24.4150    7.4570   12.0310 O.3       1 HER    0.0000
     21 O5        -26.3260   10.5500    9.0420 O.3       1 HER    0.0000
     22 O6        -27.5720   15.1980   16.5800 O.3       1 HER    0.0000
     23 O7        -25.5940   16.0400   18.2220 O.3       1 HER    0.0000
     24 O8        -23.1430   14.8810   18.1830 O.3       1 HER    0.0000
     25 H5        -22.8850   12.8570   16.4460 H         1 HER    0.0000
     26 H1        -26.9130   13.1900   15.0010 H         1 HER    0.0000
     27 H12       -26.1390   12.3140   11.0560 H         1 HER    0.0000
     28 H14       -25.4000    8.2710    9.7690 H         1 HER    0.0000
     29 H3        -22.9340   10.7530   16.3890 H         1 HER    0.0000
     30 H4        -24.9170    7.0760   12.7550 H         1 HER    0.0000
     31 H6        -28.2490   14.5580   16.8110 H         1 HER    0.0000
     32 H7        -25.8440   16.8210   17.7230 H         1 HER    0.0000
     33 H8        -22.3910   15.2030   17.6800 H         1 HER    0.0000
     34 H161      -27.1550   11.8990    7.7200 H         1 HER    0.0000
     35 H162      -27.6090   12.1180    9.4270 H         1 HER    0.0000
     36 H163      -25.9800   12.5760    8.8730 H         1 HER    0.0000
@<TRIPOS>BOND
     1    9   26 1
     2    9   14 ar
     3    9    3 ar
     4    6   16 1
     5    6   18 2
     6    6   10 2
     7   10   19 1
     8   10    4 2
     9   11   27 1
    10   11    7 ar
    11   11    5 ar
    12    7   21 1
    13    7   12 ar
    14   12   28 1
    15   12    8 ar
    16    8   20 1
    17    8   16 ar
    18   13   21 1
    19   13   35 1
    20   13   34 1
    21   13   36 1
    22   14   22 1
    23   14   15 ar
    24   15   23 1
    25   15    1 ar
    26    1   24 1
    27    1    2 ar
    28    2   25 1
    29    2    3 ar
    30    3    4 1
    31    4   17 1
    32    5   16 ar
    33    5   17 1
    34   29   19 1
    35   30   20 1
    36   31   22 1
    37   32   23 1
    38   33   24 1
@<TRIPOS>SUBSTRUCTURE
     1 HER     1 RESIDUE           4 B     HER     0 ROOT
