REMARK  7 active torsions:
REMARK  status: ('A' for Active; 'I' for Inactive)
REMARK    1  A    between atoms: C4_1  and  O8_24 
REMARK    2  A    between atoms: C6_3  and  C7_4 
REMARK    3  A    between atoms: C13_7  and  O5_21 
REMARK    4  A    between atoms: C15_8  and  O4_20 
REMARK    5  A    between atoms: C11_10  and  O3_19 
REMARK    6  A    between atoms: C2_14  and  O6_22 
REMARK    7  A    between atoms: C3_15  and  O7_23 
ROOT
HETATM    1  C7  HER B 401     -24.710  11.783  14.669  1.00 17.83     0.123 A 
HETATM    2  C8  HER B 401     -25.270  10.970  12.493  1.00 22.31     0.096 A 
HETATM    3  C10 HER B 401     -24.265   9.436  14.132  1.00 20.21     0.223 A 
HETATM    4  C13 HER B 401     -25.832  10.324  10.289  1.00 23.78     0.073 A 
HETATM    5  C15 HER B 401     -24.860   8.711  11.785  1.00 21.99     0.085 A 
HETATM    6  C11 HER B 401     -24.273  10.546  15.049  1.00 19.93     0.152 A 
HETATM    7  C12 HER B 401     -25.786  11.314  11.258  1.00 25.46     0.075 A 
HETATM    8  C14 HER B 401     -25.364   9.022  10.544  1.00 22.68     0.074 A 
HETATM    9  C9  HER B 401     -24.794   9.696  12.801  1.00 23.04     0.084 A 
HETATM   10  O1  HER B 401     -25.253  11.969  13.424  1.00 20.70    -0.306 OA
HETATM   11  O2  HER B 401     -23.826   8.311  14.486  1.00 21.23    -0.284 OA
ENDROOT
BRANCH   1  12
HETATM   12  C6  HER B 401     -24.858  12.933  15.570  1.00 21.72     0.006 A 
HETATM   13  C1  HER B 401     -26.117  13.539  15.642  1.00 22.80     0.054 A 
HETATM   14  C2  HER B 401     -26.356  14.574  16.518  1.00 25.63     0.102 A 
HETATM   15  C3  HER B 401     -25.341  15.012  17.362  1.00 26.36     0.132 A 
HETATM   16  C4  HER B 401     -24.090  14.394  17.325  1.00 20.52     0.102 A 
HETATM   17  C5  HER B 401     -23.846  13.349  16.451  1.00 16.62     0.054 A 
BRANCH  14  18
HETATM   18  O6  HER B 401     -27.572  15.198  16.580  1.00 25.56    -0.358 OA
HETATM   19  H6  HER B 401     -28.249  14.558  16.811  1.00  0.00     0.217 HD
ENDBRANCH  14  18
BRANCH  15  20
HETATM   20  O7  HER B 401     -25.594  16.040  18.222  1.00 23.44    -0.356 OA
HETATM   21  H7  HER B 401     -25.844  16.821  17.723  1.00  0.00     0.218 HD
ENDBRANCH  15  20
BRANCH  16  22
HETATM   22  O8  HER B 401     -23.143  14.881  18.183  1.00 20.37    -0.358 OA
HETATM   23  H8  HER B 401     -22.391  15.203  17.680  1.00  0.00     0.217 HD
ENDBRANCH  16  22
ENDBRANCH   1  12
BRANCH   6  24
HETATM   24  O3  HER B 401     -23.791  10.330  16.299  1.00 19.72    -0.355 OA
HETATM   25  H3  HER B 401     -22.934  10.753  16.389  1.00  0.00     0.218 HD
ENDBRANCH   6  24
BRANCH   5  26
HETATM   26  O4  HER B 401     -24.415   7.457  12.031  1.00 23.55    -0.360 OA
HETATM   27  H4  HER B 401     -24.917   7.076  12.755  1.00  0.00     0.217 HD
ENDBRANCH   5  26
BRANCH   4  28
HETATM   28  O5  HER B 401     -26.326  10.550   9.042  1.00 21.84    -0.356 OA
HETATM   29  C16 HER B 401     -26.795  11.863   8.748  1.00 19.47     0.210 C 
ENDBRANCH   4  28
TORSDOF 7
